201908281842   0     0     0Cristian D:\SWAT-MODFLOW IGME\EXAMPLE\MODFLOW\Input\DEM\DEMNEW = ASCIIGRID( D:\SWAT-M~1\EXAMPLE\MODFLOW\Input\Shapes\demasc.asc, INT)
